
OS:Version,
<<<<<<< HEAD
  {24288835-9697-4a9f-afb0-7c8ef2ce7cd0}, !- Handle
=======
  {1c905366-0411-46ce-8c07-16536e93b43a}, !- Handle
>>>>>>> pnnl/osm_geo_templates
  2.7.1;                                  !- Version Identifier

OS:Timestep,
  {b0fa043b-3e91-4705-b798-a26bbea47620}, !- Handle
  6;                                      !- Number of Timesteps per Hour

OS:Sizing:Parameters,
  {447c3c1e-0ca1-4703-b75e-3724adaba27d}, !- Handle
  1.2,                                    !- Heating Sizing Factor
  1.2,                                    !- Cooling Sizing Factor
  6;                                      !- Timesteps in Averaging Window

OS:ConvergenceLimits,
  {bf4b4a50-e37f-4f91-8030-a5c89b79406b}, !- Handle
  1,                                      !- Minimum System Timestep {minutes}
  20;                                     !- Maximum HVAC Iterations

OS:SubSurface,
  {14a25927-c7c1-4cd4-bfed-b91ae977fc4d}, !- Handle
  SMstore2_Wall_1_Window_1,               !- Name
  FixedWindow,                            !- Sub Surface Type
  ,                                       !- Construction Name
  {e89a6184-fb6e-473a-b675-95973e6a9163}, !- Surface Name
  ,                                       !- Outside Boundary Condition Object
  ,                                       !- View Factor to Ground
  ,                                       !- Shading Control Name
  ,                                       !- Frame and Divider Name
  1,                                      !- Multiplier
  ,                                       !- Number of Vertices
  23.47, 0, 2.43,                         !- X,Y,Z Vertex 1 {m}
  23.47, 0, 0.91,                         !- X,Y,Z Vertex 2 {m}
  25.6, 0, 0.91,                          !- X,Y,Z Vertex 3 {m}
  25.6, 0, 2.43;                          !- X,Y,Z Vertex 4 {m}

OS:Surface,
  {e89a6184-fb6e-473a-b675-95973e6a9163}, !- Handle
  SMstore2_Wall_1,                        !- Name
  Wall,                                   !- Surface Type
  ,                                       !- Construction Name
  {5ea367b2-633e-43a1-9423-f1b770d2335d}, !- Space Name
  Outdoors,                               !- Outside Boundary Condition
  ,                                       !- Outside Boundary Condition Object
  SunExposed,                             !- Sun Exposure
  WindExposed,                            !- Wind Exposure
  ,                                       !- View Factor to Ground
  ,                                       !- Number of Vertices
  22.86, 0, 5.18,                         !- X,Y,Z Vertex 1 {m}
  22.86, 0, 0,                            !- X,Y,Z Vertex 2 {m}
  30.48, 0, 0,                            !- X,Y,Z Vertex 3 {m}
  30.48, 0, 5.18;                         !- X,Y,Z Vertex 4 {m}

OS:Connection,
  {637fe757-06d2-4128-a71e-ba7d3abdd7c4}, !- Handle
  {69d970cc-9733-45b0-bfe3-8289d9760451}, !- Name
  ,                                       !- Source Object
  11,                                     !- Outlet Port
  ,                                       !- Target Object
  2;                                      !- Inlet Port

OS:Space,
  {5ea367b2-633e-43a1-9423-f1b770d2335d}, !- Handle
  SMstore2,                               !- Name
  {82ebec79-fe6e-440d-8555-17e64bae1191}, !- Space Type Name
  ,                                       !- Default Construction Set Name
  ,                                       !- Default Schedule Set Name
  0,                                      !- Direction of Relative North {deg}
  0,                                      !- X Origin {m}
  0,                                      !- Y Origin {m}
  0,                                      !- Z Origin {m}
  {260f6357-91fd-4976-8e49-4c3b37d44115}, !- Building Story Name
<<<<<<< HEAD
  {fae9f517-6b81-4f47-bd00-b7ce51a56e67}, !- Thermal Zone Name
=======
  {045faa45-449d-4341-bdc7-d93674d5477d}, !- Thermal Zone Name
>>>>>>> pnnl/osm_geo_templates
  Yes,                                    !- Part of Total Floor Area
  ;                                       !- Design Specification Outdoor Air Object Name

OS:Surface,
  {c9d433d2-ebb4-4a63-8b65-cea8744af1e0}, !- Handle
  SMstore7_Wall_2,                        !- Name
  Wall,                                   !- Surface Type
  ,                                       !- Construction Name
  {89130de1-d42c-444e-801d-7d9adf3e04aa}, !- Space Name
  Surface,                                !- Outside Boundary Condition
  {3e0ead8c-d3e0-4261-be91-5aab3370e2b0}, !- Outside Boundary Condition Object
  NoSun,                                  !- Sun Exposure
  NoWind,                                 !- Wind Exposure
  ,                                       !- View Factor to Ground
  ,                                       !- Number of Vertices
  76.2, 22.86, 5.18,                      !- X,Y,Z Vertex 1 {m}
  76.2, 22.86, 0,                         !- X,Y,Z Vertex 2 {m}
  76.2, 0, 0,                             !- X,Y,Z Vertex 3 {m}
  76.2, 0, 5.18;                          !- X,Y,Z Vertex 4 {m}

OS:Connection,
  {34fa492d-0a22-458d-872a-499294398366}, !- Handle
  {1d5a5b1f-3b1b-4612-977d-c2b6b0a78bb6}, !- Name
  ,                                       !- Source Object
  11,                                     !- Outlet Port
  ,                                       !- Target Object
  2;                                      !- Inlet Port

OS:Space,
  {89130de1-d42c-444e-801d-7d9adf3e04aa}, !- Handle
  SMstore7,                               !- Name
  {b9e42704-b5d6-4a10-a6f1-2e10b3f9165e}, !- Space Type Name
  ,                                       !- Default Construction Set Name
  ,                                       !- Default Schedule Set Name
  0,                                      !- Direction of Relative North {deg}
  0,                                      !- X Origin {m}
  0,                                      !- Y Origin {m}
  0,                                      !- Z Origin {m}
  {260f6357-91fd-4976-8e49-4c3b37d44115}, !- Building Story Name
<<<<<<< HEAD
  {98619eb5-1c7a-46ac-a78f-3f8a1e37e582}, !- Thermal Zone Name
=======
  {648112e5-4589-4fba-bbb3-c832004321b9}, !- Thermal Zone Name
>>>>>>> pnnl/osm_geo_templates
  Yes,                                    !- Part of Total Floor Area
  ;                                       !- Design Specification Outdoor Air Object Name

OS:Surface,
  {fb95905d-4253-4af1-a293-e7e070c3a65f}, !- Handle
  SMstore3_Floor,                         !- Name
  Floor,                                  !- Surface Type
  {7ef7fb07-e1a1-469d-90d1-b8138d7638df}, !- Construction Name
  {ab4d5305-d428-465c-8009-bc4150273508}, !- Space Name
  GroundFCfactorMethod,                   !- Outside Boundary Condition
  ,                                       !- Outside Boundary Condition Object
  NoSun,                                  !- Sun Exposure
  NoWind,                                 !- Wind Exposure
  ,                                       !- View Factor to Ground
  ,                                       !- Number of Vertices
  38.1, 22.86, 0,                         !- X,Y,Z Vertex 1 {m}
  38.1, 0, 0,                             !- X,Y,Z Vertex 2 {m}
  30.48, 0, 0,                            !- X,Y,Z Vertex 3 {m}
  30.48, 22.86, 0;                        !- X,Y,Z Vertex 4 {m}

OS:Connection,
  {f4190b94-559e-4147-855a-5243d0c11b0a}, !- Handle
  {0cae5b68-66f1-4a9a-985a-e7acf80590a3}, !- Name
  ,                                       !- Source Object
  11,                                     !- Outlet Port
  ,                                       !- Target Object
  2;                                      !- Inlet Port

OS:Space,
  {ab4d5305-d428-465c-8009-bc4150273508}, !- Handle
  SMstore3,                               !- Name
  {82ebec79-fe6e-440d-8555-17e64bae1191}, !- Space Type Name
  ,                                       !- Default Construction Set Name
  ,                                       !- Default Schedule Set Name
  0,                                      !- Direction of Relative North {deg}
  0,                                      !- X Origin {m}
  0,                                      !- Y Origin {m}
  0,                                      !- Z Origin {m}
  {260f6357-91fd-4976-8e49-4c3b37d44115}, !- Building Story Name
<<<<<<< HEAD
  {117f20de-a547-46b8-96e9-28b1e2385f1d}, !- Thermal Zone Name
=======
  {9ecb3409-bf7b-4315-86ad-66c13b271e20}, !- Thermal Zone Name
>>>>>>> pnnl/osm_geo_templates
  Yes,                                    !- Part of Total Floor Area
  ;                                       !- Design Specification Outdoor Air Object Name

OS:Connection,
  {daeb7ca2-b728-4478-8d3c-8ead3c27174d}, !- Handle
  {d7b756f1-023e-46ea-b936-32ad0e695f92}, !- Name
  ,                                       !- Source Object
  11,                                     !- Outlet Port
  ,                                       !- Target Object
  2;                                      !- Inlet Port

OS:Space,
  {6d54358c-9390-42e5-bc44-ebe58628f22c}, !- Handle
  SMstore1,                               !- Name
  {2584f38b-718e-4548-8157-0ad0320617f5}, !- Space Type Name
  ,                                       !- Default Construction Set Name
  ,                                       !- Default Schedule Set Name
  0,                                      !- Direction of Relative North {deg}
  0,                                      !- X Origin {m}
  0,                                      !- Y Origin {m}
  0,                                      !- Z Origin {m}
  {260f6357-91fd-4976-8e49-4c3b37d44115}, !- Building Story Name
<<<<<<< HEAD
  {b9bd59ca-d68d-48b3-950a-f3fecbc80759}, !- Thermal Zone Name
=======
  {a93809c0-8913-429c-af9b-66e95cd35a5e}, !- Thermal Zone Name
>>>>>>> pnnl/osm_geo_templates
  Yes,                                    !- Part of Total Floor Area
  ;                                       !- Design Specification Outdoor Air Object Name

OS:Connection,
  {2efd3352-1353-4c06-bd5c-fdf2f3cd5f18}, !- Handle
  {3fdd4743-70fd-4641-b1b6-00b374079d1d}, !- Name
  ,                                       !- Source Object
  11,                                     !- Outlet Port
  ,                                       !- Target Object
  2;                                      !- Inlet Port

OS:Space,
  {4ab39cda-851f-4e81-b908-ae359b3e2c57}, !- Handle
  LGstore2,                               !- Name
  {b9e42704-b5d6-4a10-a6f1-2e10b3f9165e}, !- Space Type Name
  ,                                       !- Default Construction Set Name
  ,                                       !- Default Schedule Set Name
  0,                                      !- Direction of Relative North {deg}
  0,                                      !- X Origin {m}
  0,                                      !- Y Origin {m}
  0,                                      !- Z Origin {m}
  {260f6357-91fd-4976-8e49-4c3b37d44115}, !- Building Story Name
<<<<<<< HEAD
  {d5fe34d2-db3d-4170-8407-ade01e612310}, !- Thermal Zone Name
=======
  {ab2ebaac-b6b1-48de-9f83-5d3e126570ae}, !- Thermal Zone Name
>>>>>>> pnnl/osm_geo_templates
  Yes,                                    !- Part of Total Floor Area
  ;                                       !- Design Specification Outdoor Air Object Name

OS:SubSurface,
  {5fe688f0-b788-4cfc-b662-00b35af892a4}, !- Handle
  SMstore1_Wall_1_Window_1,               !- Name
  FixedWindow,                            !- Sub Surface Type
  ,                                       !- Construction Name
  {01fd49f6-4fce-4ecf-85b7-dc00716b7a6a}, !- Surface Name
  ,                                       !- Outside Boundary Condition Object
  ,                                       !- View Factor to Ground
  ,                                       !- Shading Control Name
  ,                                       !- Frame and Divider Name
  1,                                      !- Multiplier
  ,                                       !- Number of Vertices
  15.85, 0, 2.43,                         !- X,Y,Z Vertex 1 {m}
  15.85, 0, 0.91,                         !- X,Y,Z Vertex 2 {m}
  17.98, 0, 0.91,                         !- X,Y,Z Vertex 3 {m}
  17.98, 0, 2.43;                         !- X,Y,Z Vertex 4 {m}

OS:Surface,
  {01fd49f6-4fce-4ecf-85b7-dc00716b7a6a}, !- Handle
  SMstore1_Wall_1,                        !- Name
  Wall,                                   !- Surface Type
  ,                                       !- Construction Name
  {6d54358c-9390-42e5-bc44-ebe58628f22c}, !- Space Name
  Outdoors,                               !- Outside Boundary Condition
  ,                                       !- Outside Boundary Condition Object
  SunExposed,                             !- Sun Exposure
  WindExposed,                            !- Wind Exposure
  ,                                       !- View Factor to Ground
  ,                                       !- Number of Vertices
  15.24, 0, 5.18,                         !- X,Y,Z Vertex 1 {m}
  15.24, 0, 0,                            !- X,Y,Z Vertex 2 {m}
  22.86, 0, 0,                            !- X,Y,Z Vertex 3 {m}
  22.86, 0, 5.18;                         !- X,Y,Z Vertex 4 {m}

OS:Surface,
  {aca2c652-2a49-4925-b828-2ae7e0317fc5}, !- Handle
  SMstore3_Wall_1,                        !- Name
  Wall,                                   !- Surface Type
  ,                                       !- Construction Name
  {ab4d5305-d428-465c-8009-bc4150273508}, !- Space Name
  Outdoors,                               !- Outside Boundary Condition
  ,                                       !- Outside Boundary Condition Object
  SunExposed,                             !- Sun Exposure
  WindExposed,                            !- Wind Exposure
  ,                                       !- View Factor to Ground
  ,                                       !- Number of Vertices
  30.48, 0, 5.18,                         !- X,Y,Z Vertex 1 {m}
  30.48, 0, 0,                            !- X,Y,Z Vertex 2 {m}
  38.1, 0, 0,                             !- X,Y,Z Vertex 3 {m}
  38.1, 0, 5.18;                          !- X,Y,Z Vertex 4 {m}

OS:SubSurface,
  {44bb76f7-1d67-4127-bab8-61f4b013d084}, !- Handle
  LGstore2_Wall_1_Door_1,                 !- Name
  GlassDoor,                              !- Sub Surface Type
  ,                                       !- Construction Name
  {cfdbec31-617a-4953-913a-420145a16f31}, !- Surface Name
  ,                                       !- Outside Boundary Condition Object
  ,                                       !- View Factor to Ground
  ,                                       !- Shading Control Name
  ,                                       !- Frame and Divider Name
  1,                                      !- Multiplier
  ,                                       !- Number of Vertices
  48.62, 0, 2.13,                         !- X,Y,Z Vertex 1 {m}
  48.62, 0, 0,                            !- X,Y,Z Vertex 2 {m}
  50.44, 0, 0,                            !- X,Y,Z Vertex 3 {m}
  50.44, 0, 2.13;                         !- X,Y,Z Vertex 4 {m}

OS:Surface,
  {cfdbec31-617a-4953-913a-420145a16f31}, !- Handle
  LGstore2_Wall_1,                        !- Name
  Wall,                                   !- Surface Type
  ,                                       !- Construction Name
  {4ab39cda-851f-4e81-b908-ae359b3e2c57}, !- Space Name
  Outdoors,                               !- Outside Boundary Condition
  ,                                       !- Outside Boundary Condition Object
  SunExposed,                             !- Sun Exposure
  WindExposed,                            !- Wind Exposure
  ,                                       !- View Factor to Ground
  ,                                       !- Number of Vertices
  45.72, 0, 5.18,                         !- X,Y,Z Vertex 1 {m}
  45.72, 0, 0,                            !- X,Y,Z Vertex 2 {m}
  60.96, 0, 0,                            !- X,Y,Z Vertex 3 {m}
  60.96, 0, 5.18;                         !- X,Y,Z Vertex 4 {m}

OS:Connection,
  {17acd66b-7f78-4f32-8046-d388e2ab97f0}, !- Handle
  {be89ff2a-60d0-4b37-b66b-4edb1228f1e9}, !- Name
  ,                                       !- Source Object
  11,                                     !- Outlet Port
  ,                                       !- Target Object
  2;                                      !- Inlet Port

OS:Space,
  {afa5c72f-ec16-4fb7-9014-0c120fd3d938}, !- Handle
  SMstore5,                               !- Name
  {b9e42704-b5d6-4a10-a6f1-2e10b3f9165e}, !- Space Type Name
  ,                                       !- Default Construction Set Name
  ,                                       !- Default Schedule Set Name
  0,                                      !- Direction of Relative North {deg}
  0,                                      !- X Origin {m}
  0,                                      !- Y Origin {m}
  0,                                      !- Z Origin {m}
  {260f6357-91fd-4976-8e49-4c3b37d44115}, !- Building Story Name
<<<<<<< HEAD
  {a2809be7-b9af-4612-8553-024ce70299b0}, !- Thermal Zone Name
=======
  {3e55bb6f-215f-4335-b30a-17d013770e55}, !- Thermal Zone Name
>>>>>>> pnnl/osm_geo_templates
  Yes,                                    !- Part of Total Floor Area
  ;                                       !- Design Specification Outdoor Air Object Name

OS:Connection,
  {29d53957-5c84-42dc-b815-cc7e273052e0}, !- Handle
  {a7eba1e5-b1aa-4630-9ada-5d34f73034ff}, !- Name
  ,                                       !- Source Object
  11,                                     !- Outlet Port
  ,                                       !- Target Object
  2;                                      !- Inlet Port

OS:Space,
  {3cabba90-ed6b-4267-bb90-b1645c10f28e}, !- Handle
  LGstore1,                               !- Name
  {2584f38b-718e-4548-8157-0ad0320617f5}, !- Space Type Name
  ,                                       !- Default Construction Set Name
  ,                                       !- Default Schedule Set Name
  0,                                      !- Direction of Relative North {deg}
  0,                                      !- X Origin {m}
  0,                                      !- Y Origin {m}
  0,                                      !- Z Origin {m}
  {260f6357-91fd-4976-8e49-4c3b37d44115}, !- Building Story Name
<<<<<<< HEAD
  {0ab58c84-58f0-4b47-b072-3a14aa593d6b}, !- Thermal Zone Name
=======
  {3295c289-e7ec-4275-b497-d0c8d3377acf}, !- Thermal Zone Name
>>>>>>> pnnl/osm_geo_templates
  Yes,                                    !- Part of Total Floor Area
  ;                                       !- Design Specification Outdoor Air Object Name

OS:Surface,
  {35c9e248-8c29-4c78-be0b-e64f33f3eb43}, !- Handle
  SMstore3_Roof,                          !- Name
  RoofCeiling,                            !- Surface Type
  ,                                       !- Construction Name
  {ab4d5305-d428-465c-8009-bc4150273508}, !- Space Name
  Outdoors,                               !- Outside Boundary Condition
  ,                                       !- Outside Boundary Condition Object
  SunExposed,                             !- Sun Exposure
  WindExposed,                            !- Wind Exposure
  ,                                       !- View Factor to Ground
  ,                                       !- Number of Vertices
  38.1, 0, 5.18,                          !- X,Y,Z Vertex 1 {m}
  38.1, 22.86, 5.18,                      !- X,Y,Z Vertex 2 {m}
  30.48, 22.86, 5.18,                     !- X,Y,Z Vertex 3 {m}
  30.48, 0, 5.18;                         !- X,Y,Z Vertex 4 {m}

OS:SubSurface,
  {f1b6ca9f-c7a8-410c-a2f2-7088de2325e8}, !- Handle
  SMstore8_Wall_1_Door,                   !- Name
  GlassDoor,                              !- Sub Surface Type
  ,                                       !- Construction Name
  {a981e60b-bd4a-4547-b26f-13d5b83eddb7}, !- Surface Name
  ,                                       !- Outside Boundary Condition Object
  ,                                       !- View Factor to Ground
  ,                                       !- Shading Control Name
  ,                                       !- Frame and Divider Name
  1,                                      !- Multiplier
  ,                                       !- Number of Vertices
  86.72, 0, 2.13,                         !- X,Y,Z Vertex 1 {m}
  86.72, 0, 0,                            !- X,Y,Z Vertex 2 {m}
  88.54, 0, 0,                            !- X,Y,Z Vertex 3 {m}
  88.54, 0, 2.13;                         !- X,Y,Z Vertex 4 {m}

OS:Surface,
  {a981e60b-bd4a-4547-b26f-13d5b83eddb7}, !- Handle
  SMstore8_Wall_1,                        !- Name
  Wall,                                   !- Surface Type
  ,                                       !- Construction Name
  {2ce2b667-ac4f-4f47-b0e0-c3246eb94e55}, !- Space Name
  Outdoors,                               !- Outside Boundary Condition
  ,                                       !- Outside Boundary Condition Object
  SunExposed,                             !- Sun Exposure
  WindExposed,                            !- Wind Exposure
  ,                                       !- View Factor to Ground
  ,                                       !- Number of Vertices
  83.82, 0, 5.18,                         !- X,Y,Z Vertex 1 {m}
  83.82, 0, 0,                            !- X,Y,Z Vertex 2 {m}
  91.44, 0, 0,                            !- X,Y,Z Vertex 3 {m}
  91.44, 0, 5.18;                         !- X,Y,Z Vertex 4 {m}

OS:Connection,
  {5afa1051-e506-44e1-b85e-dd3810e53214}, !- Handle
  {de6c2177-b187-43d7-b389-908e6c24e5b1}, !- Name
  ,                                       !- Source Object
  11,                                     !- Outlet Port
  ,                                       !- Target Object
  2;                                      !- Inlet Port

OS:Space,
  {2ce2b667-ac4f-4f47-b0e0-c3246eb94e55}, !- Handle
  SMstore8,                               !- Name
  {b9e42704-b5d6-4a10-a6f1-2e10b3f9165e}, !- Space Type Name
  ,                                       !- Default Construction Set Name
  ,                                       !- Default Schedule Set Name
  0,                                      !- Direction of Relative North {deg}
  0,                                      !- X Origin {m}
  0,                                      !- Y Origin {m}
  0,                                      !- Z Origin {m}
  {260f6357-91fd-4976-8e49-4c3b37d44115}, !- Building Story Name
<<<<<<< HEAD
  {56cd5d53-a0b2-479b-9296-247c5a3c0151}, !- Thermal Zone Name
=======
  {6cb4b9ea-cee8-4ead-b037-288fb5754735}, !- Thermal Zone Name
>>>>>>> pnnl/osm_geo_templates
  Yes;                                    !- Part of Total Floor Area

OS:SubSurface,
  {f724e12c-b374-4ab4-bcb4-dd7bd39d5e9d}, !- Handle
  SMstore1_Wall_3_Door,                   !- Name
  Door,                                   !- Sub Surface Type
  ,                                       !- Construction Name
  {730fcd9e-2ef7-4fef-bb77-e8c7e38f6d11}, !- Surface Name
  ,                                       !- Outside Boundary Condition Object
  ,                                       !- View Factor to Ground
  ,                                       !- Shading Control Name
  ,                                       !- Frame and Divider Name
  1,                                      !- Multiplier
  ,                                       !- Number of Vertices
  19.97, 22.86, 2.13,                     !- X,Y,Z Vertex 1 {m}
  19.97, 22.86, 0,                        !- X,Y,Z Vertex 2 {m}
  18.14, 22.86, 0,                        !- X,Y,Z Vertex 3 {m}
  18.14, 22.86, 2.13;                     !- X,Y,Z Vertex 4 {m}

OS:Surface,
  {730fcd9e-2ef7-4fef-bb77-e8c7e38f6d11}, !- Handle
  SMstore1_Wall_3,                        !- Name
  Wall,                                   !- Surface Type
  ,                                       !- Construction Name
  {6d54358c-9390-42e5-bc44-ebe58628f22c}, !- Space Name
  Outdoors,                               !- Outside Boundary Condition
  ,                                       !- Outside Boundary Condition Object
  SunExposed,                             !- Sun Exposure
  WindExposed,                            !- Wind Exposure
  ,                                       !- View Factor to Ground
  ,                                       !- Number of Vertices
  22.86, 22.86, 5.18,                     !- X,Y,Z Vertex 1 {m}
  22.86, 22.86, 0,                        !- X,Y,Z Vertex 2 {m}
  15.24, 22.86, 0,                        !- X,Y,Z Vertex 3 {m}
  15.24, 22.86, 5.18;                     !- X,Y,Z Vertex 4 {m}

OS:Connection,
  {7b5d66a9-ca22-48a4-9e6d-f0ca7607ebf7}, !- Handle
  {05c75a78-b288-4ef4-a48a-a43c4d419aff}, !- Name
  ,                                       !- Source Object
  11,                                     !- Outlet Port
  ,                                       !- Target Object
  2;                                      !- Inlet Port

OS:Space,
  {cbc69268-5c4e-4419-ad78-59e2fa30f77b}, !- Handle
  SMstore4,                               !- Name
  {82ebec79-fe6e-440d-8555-17e64bae1191}, !- Space Type Name
  ,                                       !- Default Construction Set Name
  ,                                       !- Default Schedule Set Name
  0,                                      !- Direction of Relative North {deg}
  0,                                      !- X Origin {m}
  0,                                      !- Y Origin {m}
  0,                                      !- Z Origin {m}
  {260f6357-91fd-4976-8e49-4c3b37d44115}, !- Building Story Name
<<<<<<< HEAD
  {95599faa-0f9c-42f6-9ad7-64313c06cbf9}, !- Thermal Zone Name
=======
  {f8e1478b-186e-4f8b-b98b-cb1c5da10a33}, !- Thermal Zone Name
>>>>>>> pnnl/osm_geo_templates
  Yes,                                    !- Part of Total Floor Area
  ;                                       !- Design Specification Outdoor Air Object Name

OS:Surface,
  {a101a558-bb0b-4742-9b63-9c3ff75af0c7}, !- Handle
  SMstore5_Wall_4,                        !- Name
  Wall,                                   !- Surface Type
  ,                                       !- Construction Name
  {afa5c72f-ec16-4fb7-9014-0c120fd3d938}, !- Space Name
  Surface,                                !- Outside Boundary Condition
  {8d6f4085-54c4-4213-935a-c82d5ea82b55}, !- Outside Boundary Condition Object
  NoSun,                                  !- Sun Exposure
  NoWind,                                 !- Wind Exposure
  ,                                       !- View Factor to Ground
  ,                                       !- Number of Vertices
  68.58, 0, 5.18,                         !- X,Y,Z Vertex 1 {m}
  68.58, 0, 0,                            !- X,Y,Z Vertex 2 {m}
  68.58, 22.86, 0,                        !- X,Y,Z Vertex 3 {m}
  68.58, 22.86, 5.18;                     !- X,Y,Z Vertex 4 {m}

OS:SubSurface,
  {471c6a1f-5260-4ff5-ac96-527625bdefc7}, !- Handle
  SMstore4_Wall_1_Door,                   !- Name
  GlassDoor,                              !- Sub Surface Type
  ,                                       !- Construction Name
  {8f9ca5b4-0882-4430-9ea2-a289a6f21d1c}, !- Surface Name
  ,                                       !- Outside Boundary Condition Object
  ,                                       !- View Factor to Ground
  ,                                       !- Shading Control Name
  ,                                       !- Frame and Divider Name
  1,                                      !- Multiplier
  ,                                       !- Number of Vertices
  41, 0, 2.13,                            !- X,Y,Z Vertex 1 {m}
  41, 0, 0,                               !- X,Y,Z Vertex 2 {m}
  42.82, 0, 0,                            !- X,Y,Z Vertex 3 {m}
  42.82, 0, 2.13;                         !- X,Y,Z Vertex 4 {m}

OS:Surface,
  {8f9ca5b4-0882-4430-9ea2-a289a6f21d1c}, !- Handle
  SMstore4_Wall_1,                        !- Name
  Wall,                                   !- Surface Type
  ,                                       !- Construction Name
  {cbc69268-5c4e-4419-ad78-59e2fa30f77b}, !- Space Name
  Outdoors,                               !- Outside Boundary Condition
  ,                                       !- Outside Boundary Condition Object
  SunExposed,                             !- Sun Exposure
  WindExposed,                            !- Wind Exposure
  ,                                       !- View Factor to Ground
  ,                                       !- Number of Vertices
  38.1, 0, 5.18,                          !- X,Y,Z Vertex 1 {m}
  38.1, 0, 0,                             !- X,Y,Z Vertex 2 {m}
  45.72, 0, 0,                            !- X,Y,Z Vertex 3 {m}
  45.72, 0, 5.18;                         !- X,Y,Z Vertex 4 {m}

OS:Surface,
  {9ab959d2-7a1d-45ff-8033-6340ab0ec147}, !- Handle
  SMstore2_Wall_3,                        !- Name
  Wall,                                   !- Surface Type
  ,                                       !- Construction Name
  {5ea367b2-633e-43a1-9423-f1b770d2335d}, !- Space Name
  Outdoors,                               !- Outside Boundary Condition
  ,                                       !- Outside Boundary Condition Object
  SunExposed,                             !- Sun Exposure
  WindExposed,                            !- Wind Exposure
  ,                                       !- View Factor to Ground
  ,                                       !- Number of Vertices
  30.48, 22.86, 5.18,                     !- X,Y,Z Vertex 1 {m}
  30.48, 22.86, 0,                        !- X,Y,Z Vertex 2 {m}
  22.86, 22.86, 0,                        !- X,Y,Z Vertex 3 {m}
  22.86, 22.86, 5.18;                     !- X,Y,Z Vertex 4 {m}

OS:SubSurface,
  {9be446ee-9ec7-422d-9553-927e054189f0}, !- Handle
  SMstore4_Wall_3_Door,                   !- Name