
OS:Version,
<<<<<<< HEAD
  {a4a2e6fc-269a-4d34-b5a2-c06f5efe675a}, !- Handle
=======
  {526f7f7b-08d8-4c72-9880-5f2a25e708a3}, !- Handle
>>>>>>> pnnl/osm_geo_templates
  2.7.1;                                  !- Version Identifier

OS:SimulationControl,
  {b3838fe9-dd1f-424c-a8a9-73ac9fdc550d}, !- Handle
  Yes,                                    !- Do Zone Sizing Calculation
  Yes,                                    !- Do System Sizing Calculation
  Yes,                                    !- Do Plant Sizing Calculation
  No,                                     !- Run Simulation for Sizing Periods
  Yes,                                    !- Run Simulation for Weather File Run Periods
  0.04,                                   !- Loads Convergence Tolerance Value
  0.4,                                    !- Temperature Convergence Tolerance Value {deltaC}
  FullExterior,                           !- Solar Distribution
  25,                                     !- Maximum Number of Warmup Days
  6;                                      !- Minimum Number of Warmup Days

OS:Surface,
  {9a7119fd-0f0e-4e33-9d27-40c522dd10a7}, !- Handle
  P_GuestRoom319_10204_0_10111,           !- Name
  Wall,                                   !- Surface Type
  ,                                       !- Construction Name
  {b348f0b3-7513-4945-aab8-392424f022d8}, !- Space Name
  Surface,                                !- Outside Boundary Condition
  {28589f15-8eea-41b6-aafd-f5de8680c100}, !- Outside Boundary Condition Object
  NoSun,                                  !- Sun Exposure
  NoWind,                                 !- Wind Exposure
  ,                                       !- View Factor to Ground
  ,                                       !- Number of Vertices
  28.69988442, 10.1078292198, 8.8392,     !- X,Y,Z Vertex 1 {m}
  28.69988442, 10.1078292198, 6.096,      !- X,Y,Z Vertex 2 {m}
  32.66228442, 10.1078292198, 6.096,      !- X,Y,Z Vertex 3 {m}
  32.66228442, 10.1078292198, 8.8392;     !- X,Y,Z Vertex 4 {m}

OS:Connection,
  {ba7f5790-e06c-47df-8c8e-ccf0762f0b5f}, !- Handle
  {848a7b8f-4095-402e-b1f1-feb4d17d634d}, !- Name
  ,                                       !- Source Object
  11,                                     !- Outlet Port
  ,                                       !- Target Object
  2;                                      !- Inlet Port

OS:Space,
  {b348f0b3-7513-4945-aab8-392424f022d8}, !- Handle
  GuestRoom319,                           !- Name
  {700e6835-fc45-4eb8-8c25-8bae6c2046ba}, !- Space Type Name
<<<<<<< HEAD
  {883264bc-9c02-4996-b3c5-c23878b8b207}, !- Default Construction Set Name
=======
  {0e2c3fc2-b029-4e00-85f6-64165d8b49f5}, !- Default Construction Set Name
>>>>>>> pnnl/osm_geo_templates
  ,                                       !- Default Schedule Set Name
  0,                                      !- Direction of Relative North {deg}
  0,                                      !- X Origin {m}
  0,                                      !- Y Origin {m}
  0,                                      !- Z Origin {m}
  {9d9a6e32-e8ea-4ae7-bc8f-9ef3c194a0a9}, !- Building Story Name
<<<<<<< HEAD
  {ff69478f-2a33-48fb-868c-e063983511f8}; !- Thermal Zone Name
=======
  {5359c1fb-c7c0-4712-98b5-052d92af122a}; !- Thermal Zone Name
>>>>>>> pnnl/osm_geo_templates

OS:Connection,
  {c387cf8a-aa04-489b-814c-10fc2a2ea994}, !- Handle
  {1224df8b-aa01-43d6-899f-b4bf57504735}, !- Name
  ,                                       !- Source Object
  11,                                     !- Outlet Port
  ,                                       !- Target Object
  2;                                      !- Inlet Port

OS:Space,
  {a202d60c-8fd9-423f-beff-6d304d4790c3}, !- Handle
  GuestRoom424,                           !- Name
  {80660263-e9b9-4be5-89c6-c0ba14fb3524}, !- Space Type Name
<<<<<<< HEAD
  {02729346-67f6-440f-b95f-4e526de5d37c}, !- Default Construction Set Name
=======
  {3e23c142-b33c-4037-a48a-eda78671688b}, !- Default Construction Set Name
>>>>>>> pnnl/osm_geo_templates
  ,                                       !- Default Schedule Set Name
  0,                                      !- Direction of Relative North {deg}
  0,                                      !- X Origin {m}
  0,                                      !- Y Origin {m}
  0,                                      !- Z Origin {m}
  {addc6d05-4f53-4cab-abfd-31c74c9eb965}, !- Building Story Name
<<<<<<< HEAD
  {a7674290-9ea3-4e83-8c22-56b676ea1a3e}; !- Thermal Zone Name
=======
  {0d4988ab-b825-4e98-a5a5-fb8921dda478}; !- Thermal Zone Name
>>>>>>> pnnl/osm_geo_templates

OS:Surface,
  {6d825951-5a96-4d9c-856a-825cccb0cf9a}, !- Handle
  P_GuestRoom413_10321_0_10172,           !- Name
  Wall,                                   !- Surface Type
  ,                                       !- Construction Name
  {c500b375-15fc-4e9d-b0b1-3113a325d7eb}, !- Space Name
  Surface,                                !- Outside Boundary Condition
  {4cd929db-88b7-4d22-83f8-fc67c6ac1c1b}, !- Outside Boundary Condition Object
  NoSun,                                  !- Sun Exposure
  NoWind,                                 !- Wind Exposure
  ,                                       !- View Factor to Ground
  ,                                       !- Number of Vertices
  48.5118844242, 8.27902922, 11.5824,     !- X,Y,Z Vertex 1 {m}
  48.5118844242, 8.27902922, 8.8392,      !- X,Y,Z Vertex 2 {m}
  48.5118844242, 0.04884522, 8.8392,      !- X,Y,Z Vertex 3 {m}
  48.5118844242, 0.04884522, 11.5824;     !- X,Y,Z Vertex 4 {m}

OS:Connection,
  {fbc7c13b-14fe-4330-899a-0becac95df7e}, !- Handle
  {1ea50cd6-5b4f-43b2-a215-71fbd7de2fde}, !- Name
  ,                                       !- Source Object
  11,                                     !- Outlet Port
  ,                                       !- Target Object
  2;                                      !- Inlet Port

OS:Space,
  {c500b375-15fc-4e9d-b0b1-3113a325d7eb}, !- Handle
  GuestRoom413,                           !- Name
  {04c88782-589c-45f7-ab66-68805eef0829}, !- Space Type Name
<<<<<<< HEAD
  {02729346-67f6-440f-b95f-4e526de5d37c}, !- Default Construction Set Name
=======
  {3e23c142-b33c-4037-a48a-eda78671688b}, !- Default Construction Set Name
>>>>>>> pnnl/osm_geo_templates
  ,                                       !- Default Schedule Set Name
  0,                                      !- Direction of Relative North {deg}
  0,                                      !- X Origin {m}
  0,                                      !- Y Origin {m}
  0,                                      !- Z Origin {m}
  {addc6d05-4f53-4cab-abfd-31c74c9eb965}, !- Building Story Name
<<<<<<< HEAD
  {66590c34-a863-41ad-9c70-90db6cdae181}; !- Thermal Zone Name
=======
  {f6dab334-48b2-4c02-8291-0a3a2559de75}; !- Thermal Zone Name
>>>>>>> pnnl/osm_geo_templates

OS:Surface,
  {1283f671-619c-49ab-b5ec-91749e467da5}, !- Handle
  P_GuestRoom103_10026_0_10024,           !- Name
  Wall,                                   !- Surface Type
  ,                                       !- Construction Name
  {c3815c02-c039-40d5-bd9e-3aa8723ae1f6}, !- Space Name
  Surface,                                !- Outside Boundary Condition
  {0142e4a3-3a91-46d0-b231-52033ca312ae}, !- Outside Boundary Condition Object
  NoSun,                                  !- Sun Exposure
  NoWind,                                 !- Wind Exposure
  ,                                       !- View Factor to Ground
  ,                                       !- Number of Vertices
  52.47428442, 8.2790292198, 3.3528,      !- X,Y,Z Vertex 1 {m}
  52.47428442, 8.2790292198, 0,           !- X,Y,Z Vertex 2 {m}
  48.51188442, 8.2790292198, 0,           !- X,Y,Z Vertex 3 {m}
  48.51188442, 8.2790292198, 3.3528;      !- X,Y,Z Vertex 4 {m}

OS:Connection,
  {ff02caa5-3343-4fc0-9044-dc985c0a9eab}, !- Handle
  {bbdc4813-0d50-4feb-81c1-d8378fb3674e}, !- Name
  ,                                       !- Source Object
  11,                                     !- Outlet Port
  ,                                       !- Target Object
  2;                                      !- Inlet Port

OS:Space,
  {c3815c02-c039-40d5-bd9e-3aa8723ae1f6}, !- Handle
  GuestRoom103,                           !- Name
  {b0f72164-c6a8-46ca-8cfb-9c85340e11d1}, !- Space Type Name
  ,                                       !- Default Construction Set Name
  ,                                       !- Default Schedule Set Name
  0,                                      !- Direction of Relative North {deg}
  0,                                      !- X Origin {m}
  0,                                      !- Y Origin {m}
  0,                                      !- Z Origin {m}
  {bcd4b182-9780-4b86-bbef-76bd517e9731}, !- Building Story Name
<<<<<<< HEAD
  {f6be9ddc-946b-4644-a10f-51aee827e82b}; !- Thermal Zone Name
=======
  {d468f6f4-caa2-4cb3-a095-28550d12f45e}; !- Thermal Zone Name
>>>>>>> pnnl/osm_geo_templates

OS:Connection,
  {c2564dde-d183-49e1-8f66-e1cfa92f5813}, !- Handle
  {4783d52c-f411-4b4f-a7f3-ba3e117a715c}, !- Name
  ,                                       !- Source Object
  11,                                     !- Outlet Port
  ,                                       !- Target Object
  2;                                      !- Inlet Port

OS:Space,
  {b1548dbe-dfc0-46a3-9008-47b54bb73600}, !- Handle
  GuestRoom209_212,                       !- Name
  {b0f72164-c6a8-46ca-8cfb-9c85340e11d1}, !- Space Type Name
<<<<<<< HEAD
  {319aba4c-e452-40a8-8ac8-bbd424a4a6ac}, !- Default Construction Set Name
=======
  {9db7af96-15e9-4c42-8d1c-38d5a25b438a}, !- Default Construction Set Name
>>>>>>> pnnl/osm_geo_templates
  ,                                       !- Default Schedule Set Name
  0,                                      !- Direction of Relative North {deg}
  0,                                      !- X Origin {m}
  0,                                      !- Y Origin {m}
  0,                                      !- Z Origin {m}
  {5f027238-6f30-42a2-8424-d1243403f527}, !- Building Story Name
<<<<<<< HEAD
  {a3b2a46f-5edc-4240-9a5e-977d02427954}; !- Thermal Zone Name
=======
  {417d1873-e57e-48c7-a868-7aae471696cb}; !- Thermal Zone Name
>>>>>>> pnnl/osm_geo_templates

OS:Connection,
  {dc2ea7a1-a7b2-4172-add6-0b623a36e9c9}, !- Handle
  {f80e3e4a-3005-48ef-83a1-847d02074cf5}, !- Name
  ,                                       !- Source Object
  11,                                     !- Outlet Port
  ,                                       !- Target Object
  2;                                      !- Inlet Port

OS:Space,
  {00a26ae5-1835-4e67-bf63-ff3980d68bef}, !- Handle
  CorridorFlr2,                           !- Name
  {a30d07a2-efd0-4b5d-a830-bce694b56009}, !- Space Type Name
<<<<<<< HEAD
  {319aba4c-e452-40a8-8ac8-bbd424a4a6ac}, !- Default Construction Set Name
=======
  {9db7af96-15e9-4c42-8d1c-38d5a25b438a}, !- Default Construction Set Name
>>>>>>> pnnl/osm_geo_templates
  ,                                       !- Default Schedule Set Name
  0,                                      !- Direction of Relative North {deg}
  0,                                      !- X Origin {m}
  0,                                      !- Y Origin {m}
  0,                                      !- Z Origin {m}
  {5f027238-6f30-42a2-8424-d1243403f527}, !- Building Story Name
<<<<<<< HEAD
  {5eb544e6-2df4-4685-b050-d94dd74ceca1}; !- Thermal Zone Name
=======
  {c60828b2-f632-4fca-9c32-375c9d79534e}; !- Thermal Zone Name
>>>>>>> pnnl/osm_geo_templates

OS:Connection,
  {5d423a03-37ad-4681-8ca7-d4db7739a714}, !- Handle
  {6ccba684-18ee-42ee-a773-ce9ed5f2b3c5}, !- Name
  ,                                       !- Source Object
  11,                                     !- Outlet Port
  ,                                       !- Target Object
  2;                                      !- Inlet Port

OS:Space,
  {1bfc91c4-f18a-456e-b39d-0d4a1a907a45}, !- Handle
  FrontStairsFlr2,                        !- Name
  {ffdb3771-9b35-478f-9401-fe25d8136d84}, !- Space Type Name
<<<<<<< HEAD
  {319aba4c-e452-40a8-8ac8-bbd424a4a6ac}, !- Default Construction Set Name
=======
  {9db7af96-15e9-4c42-8d1c-38d5a25b438a}, !- Default Construction Set Name
>>>>>>> pnnl/osm_geo_templates
  ,                                       !- Default Schedule Set Name
  0,                                      !- Direction of Relative North {deg}
  0,                                      !- X Origin {m}
  0,                                      !- Y Origin {m}
  0,                                      !- Z Origin {m}
  {5f027238-6f30-42a2-8424-d1243403f527}, !- Building Story Name
<<<<<<< HEAD
  {5d700229-e8b9-4fd0-b851-92e3cfd76d9e}; !- Thermal Zone Name
=======
  {59554eaf-0ff2-4bd8-a2f4-0a673af56ef3}; !- Thermal Zone Name
>>>>>>> pnnl/osm_geo_templates

OS:Surface,
  {16a71a24-7ba9-4fbc-9307-bcfaf92702cc}, !- Handle
  F_GuestRoom320_323_10177_0_10098,       !- Name
  Floor,                                  !- Surface Type
  ,                                       !- Construction Name
  {4160cb4c-7f40-4de5-8119-2144b2cc25c5}, !- Space Name
  Surface,                                !- Outside Boundary Condition
  {d6e921d4-a16f-4a33-ac3d-ccf4bb7c7513}, !- Outside Boundary Condition Object
  NoSun,                                  !- Sun Exposure
  NoWind,                                 !- Wind Exposure
  ,                                       !- View Factor to Ground
  ,                                       !- Number of Vertices
  23.82308442, 18.33742922, 6.096,        !- X,Y,Z Vertex 1 {m}
  23.82308442, 10.10782922, 6.096,        !- X,Y,Z Vertex 2 {m}
  7.97348442, 10.10782922, 6.096,         !- X,Y,Z Vertex 3 {m}
  7.97348442, 18.33742922, 6.096;         !- X,Y,Z Vertex 4 {m}

OS:Connection,
  {3a2ecc4c-5450-4e83-9f03-66f56e0b678b}, !- Handle
  {aa6c1146-a275-4d65-b4e8-a11e094285a9}, !- Name
  ,                                       !- Source Object
  11,                                     !- Outlet Port
  ,                                       !- Target Object
  2;                                      !- Inlet Port

OS:Space,
  {4160cb4c-7f40-4de5-8119-2144b2cc25c5}, !- Handle
  GuestRoom320_323,                       !- Name
  {b0f72164-c6a8-46ca-8cfb-9c85340e11d1}, !- Space Type Name
<<<<<<< HEAD
  {883264bc-9c02-4996-b3c5-c23878b8b207}, !- Default Construction Set Name
=======
  {0e2c3fc2-b029-4e00-85f6-64165d8b49f5}, !- Default Construction Set Name
>>>>>>> pnnl/osm_geo_templates
  ,                                       !- Default Schedule Set Name
  0,                                      !- Direction of Relative North {deg}
  0,                                      !- X Origin {m}
  0,                                      !- Y Origin {m}
  0,                                      !- Z Origin {m}
  {9d9a6e32-e8ea-4ae7-bc8f-9ef3c194a0a9}, !- Building Story Name
<<<<<<< HEAD
  {9a952f52-a2f3-4a43-bb2b-b260bc84c034}; !- Thermal Zone Name
=======
  {06355d8c-a06d-40d5-8816-bd56403d075c}; !- Thermal Zone Name
>>>>>>> pnnl/osm_geo_templates

OS:Surface,
  {3caf56a8-8123-4ef5-9c41-ee66fbfa3119}, !- Handle
  P_FrontStorageFlr1_10088_0_10056,       !- Name
  Wall,                                   !- Surface Type
  ,                                       !- Construction Name
  {4b2c1c60-44e4-4035-9436-d5611d6f0b0e}, !- Space Name
  Surface,                                !- Outside Boundary Condition
  {11a68b72-c441-4d7f-ab3f-479b94ce28bc}, !- Outside Boundary Condition Object
  NoSun,                                  !- Sun Exposure
  NoWind,                                 !- Wind Exposure
  ,                                       !- View Factor to Ground
  ,                                       !- Number of Vertices
  4.011084424, 10.10782922, 3.3528,       !- X,Y,Z Vertex 1 {m}
  4.011084424, 10.10782922, 0,            !- X,Y,Z Vertex 2 {m}
  4.011084424, 18.33742922, 0,            !- X,Y,Z Vertex 3 {m}
  4.011084424, 18.33742922, 3.3528;       !- X,Y,Z Vertex 4 {m}

OS:Connection,
  {fda5e5ee-bb76-4e9e-b867-0030d01a4114}, !- Handle
  {eb16badb-dcd3-426e-a0ae-e0a50f48e036}, !- Name
  ,                                       !- Source Object
  11,                                     !- Outlet Port
  ,                                       !- Target Object
  2;                                      !- Inlet Port

OS:Space,
  {4b2c1c60-44e4-4035-9436-d5611d6f0b0e}, !- Handle
  FrontStorageFlr1,                       !- Name
  {e0fcc36a-fb24-4b50-9d09-9e86a0ae0fce}, !- Space Type Name
  ,                                       !- Default Construction Set Name
  ,                                       !- Default Schedule Set Name
  0,                                      !- Direction of Relative North {deg}
  0,                                      !- X Origin {m}
  0,                                      !- Y Origin {m}
  0,                                      !- Z Origin {m}
  {bcd4b182-9780-4b86-bbef-76bd517e9731}, !- Building Story Name
<<<<<<< HEAD
  {6a62a2bd-9592-4e6f-9c82-ddbce78069ea}; !- Thermal Zone Name
=======
  {f229ebce-588a-4e1a-9dae-37f1237f3202}; !- Thermal Zone Name
>>>>>>> pnnl/osm_geo_templates

OS:Connection,
  {00de4710-11d6-44e5-906e-f7fd9f750a42}, !- Handle
  {1ed3be41-c80a-43dd-9734-6f0de787a4db}, !- Name
  ,                                       !- Source Object
  11,                                     !- Outlet Port
  ,                                       !- Target Object
  2;                                      !- Inlet Port

OS:Space,
  {e80c37ba-d8e3-4b27-87c8-4e4091f4d18f}, !- Handle
  GuestRoom105,                           !- Name
  {b0f72164-c6a8-46ca-8cfb-9c85340e11d1}, !- Space Type Name
  ,                                       !- Default Construction Set Name
  ,                                       !- Default Schedule Set Name
  0,                                      !- Direction of Relative North {deg}
  0,                                      !- X Origin {m}
  0,                                      !- Y Origin {m}
  0,                                      !- Z Origin {m}
  {bcd4b182-9780-4b86-bbef-76bd517e9731}, !- Building Story Name
<<<<<<< HEAD
  {5d453272-5cb8-4c38-a54d-4ba058165b64}; !- Thermal Zone Name
=======
  {036910af-30e3-41f9-a5ad-a8717669f1c5}; !- Thermal Zone Name
>>>>>>> pnnl/osm_geo_templates

OS:Connection,
  {f09bbd4d-6b85-4a8a-97e7-c549a7b887b5}, !- Handle
  {c863cc3d-5544-4f0f-80e0-31b9cbaeac4f}, !- Name
  ,                                       !- Source Object
  11,                                     !- Outlet Port
  ,                                       !- Target Object
  2;                                      !- Inlet Port

OS:Space,
  {4803251a-3f60-4748-915b-5b4e6edcbb57}, !- Handle
  GuestRoom419,                           !- Name
  {80660263-e9b9-4be5-89c6-c0ba14fb3524}, !- Space Type Name
<<<<<<< HEAD
  {02729346-67f6-440f-b95f-4e526de5d37c}, !- Default Construction Set Name
=======
  {3e23c142-b33c-4037-a48a-eda78671688b}, !- Default Construction Set Name
>>>>>>> pnnl/osm_geo_templates
  ,                                       !- Default Schedule Set Name
  0,                                      !- Direction of Relative North {deg}
  0,                                      !- X Origin {m}
  0,                                      !- Y Origin {m}
  0,                                      !- Z Origin {m}
  {addc6d05-4f53-4cab-abfd-31c74c9eb965}, !- Building Story Name
<<<<<<< HEAD
  {9eadceb8-e005-445f-8ca5-af224677eb4a}; !- Thermal Zone Name
=======
  {69ad8c1b-2a3a-4399-84ff-ae291ba05c11}; !- Thermal Zone Name
>>>>>>> pnnl/osm_geo_templates

OS:Surface,
  {d8af1ad0-09b4-4e7f-af93-f04cbeb9552b}, !- Handle
  S_CorridorFlr1_0_0_0,                   !- Name
  Floor,                                  !- Surface Type
  {8e8479d7-9ae6-465d-a30e-cee2930d1d5b}, !- Construction Name
  {663c7a10-7b04-4537-baa8-c6a88ea5b0d3}, !- Space Name
  GroundFCfactorMethod,                   !- Outside Boundary Condition
  ,                                       !- Outside Boundary Condition Object
  NoSun,                                  !- Sun Exposure
  NoWind,                                 !- Wind Exposure
  ,                                       !- View Factor to Ground
  ,                                       !- Number of Vertices
  26.8710844241, 18.3374292198, 0,        !- X,Y,Z Vertex 1 {m}
  26.8710844241, 10.1078292198, 0,        !- X,Y,Z Vertex 2 {m}
  54.9132684242, 10.1078292198, 0,        !- X,Y,Z Vertex 3 {m}
  54.9132684242, 8.2790292198, 0,         !- X,Y,Z Vertex 4 {m}
  26.8710844241, 8.2790292198, 0,         !- X,Y,Z Vertex 5 {m}
  26.8710844241, 0.0488452197, 0,         !- X,Y,Z Vertex 6 {m}
  23.8230844241, 0.0488452197, 0,         !- X,Y,Z Vertex 7 {m}
  23.8230844241, 8.2790292198, 0,         !- X,Y,Z Vertex 8 {m}
  0.048684424, 8.2790292198, 0,           !- X,Y,Z Vertex 9 {m}
  0.048684424, 10.1078292198, 0,          !- X,Y,Z Vertex 10 {m}
  23.8230844241, 10.1078292198, 0,        !- X,Y,Z Vertex 11 {m}
  23.8230844241, 18.3374292198, 0;        !- X,Y,Z Vertex 12 {m}

OS:Connection,
  {3741890d-4b20-4e88-b8ed-dec97dba7e46}, !- Handle
  {ec149e36-28d4-41ba-a143-7e7bdc39e45c}, !- Name
  ,                                       !- Source Object
  11,                                     !- Outlet Port
  ,                                       !- Target Object
  2;                                      !- Inlet Port

OS:Space,
  {663c7a10-7b04-4537-baa8-c6a88ea5b0d3}, !- Handle
  CorridorFlr1,                           !- Name
  {a30d07a2-efd0-4b5d-a830-bce694b56009}, !- Space Type Name
  ,                                       !- Default Construction Set Name
  ,                                       !- Default Schedule Set Name
  0,                                      !- Direction of Relative North {deg}
  0,                                      !- X Origin {m}
  0,                                      !- Y Origin {m}
  0,                                      !- Z Origin {m}
  {bcd4b182-9780-4b86-bbef-76bd517e9731}, !- Building Story Name
<<<<<<< HEAD
  {49749bea-bb4c-4fab-94eb-db8e515d57df}; !- Thermal Zone Name
=======
  {327cdf75-ed0c-4a3f-9a74-d28fb298ddac}; !- Thermal Zone Name
>>>>>>> pnnl/osm_geo_templates

OS:Connection,
  {86dc8868-0a46-4570-aa7c-1f8850f4fb61}, !- Handle
  {cbcd758b-4872-417b-809e-29d1a9eab3d5}, !- Name
  ,                                       !- Source Object
  11,                                     !- Outlet Port
  ,                                       !- Target Object
  2;                                      !- Inlet Port

OS:Space,
  {4f1a062c-c10c-4c1c-abe2-f9adedcfdd8b}, !- Handle
  GuestRoom402_405,                       !- Name
  {04c88782-589c-45f7-ab66-68805eef0829}, !- Space Type Name
<<<<<<< HEAD
  {02729346-67f6-440f-b95f-4e526de5d37c}, !- Default Construction Set Name
=======
  {3e23c142-b33c-4037-a48a-eda78671688b}, !- Default Construction Set Name
>>>>>>> pnnl/osm_geo_templates
  ,                                       !- Default Schedule Set Name
  0,                                      !- Direction of Relative North {deg}
  0,                                      !- X Origin {m}
  0,                                      !- Y Origin {m}
  0,                                      !- Z Origin {m}
  {addc6d05-4f53-4cab-abfd-31c74c9eb965}, !- Building Story Name
<<<<<<< HEAD
  {0cceb884-5ef0-4a6d-bdff-41441752682c}; !- Thermal Zone Name
=======
  {ddb05ff0-2af1-403f-9bfa-f46c61faeafe}; !- Thermal Zone Name
>>>>>>> pnnl/osm_geo_templates

OS:Connection,
  {317e4273-ca93-48d3-87f5-864b8f20ab58}, !- Handle
  {d2813a61-9f3a-45bd-b617-5735854a3b46}, !- Name
  ,                                       !- Source Object
  11,                                     !- Outlet Port
  ,                                       !- Target Object
  2;                                      !- Inlet Port

OS:Space,
  {93e2a0a3-3d7b-43de-9044-00f7514c2ffa}, !- Handle
  GuestRoom224,                           !- Name
  {b0f72164-c6a8-46ca-8cfb-9c85340e11d1}, !- Space Type Name
<<<<<<< HEAD
  {319aba4c-e452-40a8-8ac8-bbd424a4a6ac}, !- Default Construction Set Name
=======
  {9db7af96-15e9-4c42-8d1c-38d5a25b438a}, !- Default Construction Set Name
>>>>>>> pnnl/osm_geo_templates
  ,                                       !- Default Schedule Set Name
  0,                                      !- Direction of Relative North {deg}
  0,                                      !- X Origin {m}
  0,                                      !- Y Origin {m}
  0,                                      !- Z Origin {m}
  {5f027238-6f30-42a2-8424-d1243403f527}, !- Building Story Name
<<<<<<< HEAD
  {1d30d043-5688-4a00-ad77-11b3e014ae79}; !- Thermal Zone Name
=======
  {fc9edb43-6346-44cd-87c8-4c7fbb55d57a}; !- Thermal Zone Name
>>>>>>> pnnl/osm_geo_templates

OS:Surface,
  {5114dafc-720e-4c92-a39f-5465873140fd}, !- Handle
  P_RearStorageFlr3_4_0_0,                !- Name
  Wall,                                   !- Surface Type
  ,                                       !- Construction Name
  {ca87098f-56ad-44d7-82a4-672cf235733f}, !- Space Name
  Surface,                                !- Outside Boundary Condition
  {551d9da8-17d7-48a8-9f7f-97250d99333e}, !- Outside Boundary Condition Object
  NoSun,                                  !- Sun Exposure
  NoWind,                                 !- Wind Exposure
  ,                                       !- View Factor to Ground
  ,                                       !- Number of Vertices
  52.4742844242, 8.27902922, 8.8392,      !- X,Y,Z Vertex 1 {m}
  52.4742844242, 8.27902922, 6.096,       !- X,Y,Z Vertex 2 {m}
  52.4742844242, 0.04884522, 6.096,       !- X,Y,Z Vertex 3 {m}
  52.4742844242, 0.04884522, 8.8392;      !- X,Y,Z Vertex 4 {m}

OS:Connection,
  {9c3d00da-2cfb-4e4b-9bd9-5355ba63723c}, !- Handle
  {22e7e3f6-5fb4-474c-b1fa-203387e49d31}, !- Name
  ,                                       !- Source Object
  11,                                     !- Outlet Port
  ,                                       !- Target Object
  2;                                      !- Inlet Port

OS:Space,
  {ca87098f-56ad-44d7-82a4-672cf235733f}, !- Handle
  RearStorageFlr3,                        !- Name
  {e0fcc36a-fb24-4b50-9d09-9e86a0ae0fce}, !- Space Type Name
<<<<<<< HEAD
  {883264bc-9c02-4996-b3c5-c23878b8b207}, !- Default Construction Set Name
=======
  {0e2c3fc2-b029-4e00-85f6-64165d8b49f5}, !- Default Construction Set Name
>>>>>>> pnnl/osm_geo_templates
  ,                                       !- Default Schedule Set Name
  0,                                      !- Direction of Relative North {deg}
  0,                                      !- X Origin {m}
  0,                                      !- Y Origin {m}
  0,                                      !- Z Origin {m}
  {9d9a6e32-e8ea-4ae7-bc8f-9ef3c194a0a9}, !- Building Story Name
<<<<<<< HEAD
  {476e943a-7190-4391-9f97-6cfd150eb8a7}; !- Thermal Zone Name
=======
  {fdc56603-c3d6-4183-b6f9-aca518505559}; !- Thermal Zone Name
>>>>>>> pnnl/osm_geo_templates

OS:Surface,
  {407a1918-9bd3-46a1-a430-28fe78bbb6cf}, !- Handle
  P_CorridorFlr2_16_0_0,                  !- Name
  Wall,                                   !- Surface Type
  ,                                       !- Construction Name
  {00a26ae5-1835-4e67-bf63-ff3980d68bef}, !- Space Name
  Surface,                                !- Outside Boundary Condition
  {26e7ee5b-3e1e-4fd9-8da0-859ee9868630}, !- Outside Boundary Condition Object
  NoSun,                                  !- Sun Exposure
  NoWind,                                 !- Wind Exposure
  ,                                       !- View Factor to Ground
  ,                                       !- Number of Vertices
  0.04868442, 8.2790292198, 6.096,        !- X,Y,Z Vertex 1 {m}
  0.04868442, 8.2790292198, 3.3528,       !- X,Y,Z Vertex 2 {m}
  4.01108442, 8.2790292198, 3.3528,       !- X,Y,Z Vertex 3 {m}
  4.01108442, 8.2790292198, 6.096;        !- X,Y,Z Vertex 4 {m}

OS:Surface,
  {56e24e6f-be3d-456a-927b-b20907ce0e06}, !- Handle
  P_MechanicalRoomFlr1_10023_0_10021,     !- Name
  Wall,                                   !- Surface Type
  ,                                       !- Construction Name
  {bab6abf9-2a5f-4da1-819e-9f8cfd12025b}, !- Space Name
  Surface,                                !- Outside Boundary Condition
  {996d4f65-b483-4b05-90a6-24fcd5ab58cc}, !- Outside Boundary Condition Object
  NoSun,                                  !- Sun Exposure
  NoWind,                                 !- Wind Exposure
  ,                                       !- View Factor to Ground
  ,                                       !- Number of Vertices
  40.58708442, 8.2790292198, 3.3528,      !- X,Y,Z Vertex 1 {m}
  40.58708442, 8.2790292198, 0,           !- X,Y,Z Vertex 2 {m}
  36.62468442, 8.2790292198, 0,           !- X,Y,Z Vertex 3 {m}
  36.62468442, 8.2790292198, 3.3528;      !- X,Y,Z Vertex 4 {m}

OS:Connection,
  {fd69f861-bd8a-4845-af5f-af8778a504bb}, !- Handle
  {ddc06bbd-8528-4157-8091-8be9599dc82c}, !- Name
  ,                                       !- Source Object
  11,                                     !- Outlet Port
  ,                                       !- Target Object
  2;                                      !- Inlet Port

OS:Space,
  {bab6abf9-2a5f-4da1-819e-9f8cfd12025b}, !- Handle
  MechanicalRoomFlr1,                     !- Name
  {db7eb348-454a-4fa2-80ac-e8beaac522ca}, !- Space Type Name
  ,                                       !- Default Construction Set Name
  ,                                       !- Default Schedule Set Name
  0,                                      !- Direction of Relative North {deg}
  0,                                      !- X Origin {m}
  0,                                      !- Y Origin {m}
  0,                                      !- Z Origin {m}
  {bcd4b182-9780-4b86-bbef-76bd517e9731}, !- Building Story Name
<<<<<<< HEAD